REMARK  6 active torsions:
REMARK  status: ('A' for Active; 'I' for Inactive)
REMARK    1  A    between atoms: N1_1  and  C1_2 
REMARK    2  A    between atoms: C1_2  and  C2_3 
REMARK    3  A    between atoms: C1_2  and  C5_7 
REMARK    4  A    between atoms: C2_3  and  C3_4 
REMARK    5  A    between atoms: C3_4  and  C4_5 
REMARK    6  A    between atoms: C4_5  and  N2_6 
ROOT
ATOM      1  C1  <0> d          31.462  14.695  51.912  0.00  0.00     0.283 C 
ENDROOT
BRANCH   1   2
ATOM      2  N1  <0> d          30.713  13.551  52.382  0.00  0.00    -0.065 N 
ATOM      3  H1  <0> d          30.540  12.929  51.619  0.00  0.00     0.275 HD
ATOM      4  H2  <0> d          31.239  13.075  53.087  0.00  0.00     0.275 HD
ATOM      5  H3  <0> d          29.842  13.858  52.765  0.00  0.00     0.275 HD
ENDBRANCH   1   2
BRANCH   1   6
ATOM      6  C2  <0> d          32.881  14.518  52.384  0.00  0.00     0.045 C 
BRANCH   6   7
ATOM      7  C3  <0> d          33.378  15.447  53.444  0.00  0.00     0.030 C 
BRANCH   7   8
ATOM      8  C4  <0> d          34.736  15.950  53.033  0.00  0.00     0.230 C 
BRANCH   8   9
ATOM      9  N2  <0> d          35.937  15.273  53.617  0.00  0.00    -0.079 N 
ATOM     10  H11 <0> d          36.617  15.122  52.900  0.00  0.00     0.274 HD
ATOM     11  H12 <0> d          36.330  15.851  54.332  0.00  0.00     0.274 HD
ATOM     12  H13 <0> d          35.666  14.394  54.009  0.00  0.00     0.274 HD
ENDBRANCH   8   9
ENDBRANCH   7   8
ENDBRANCH   6   7
ENDBRANCH   1   6
BRANCH   1  13
ATOM     13  C5  <0> d          31.500  14.530  50.402  0.00  0.00     0.204 C 
ATOM     14  O1  <0> d          32.243  13.633  49.899  0.00  0.00    -0.646 OA
ATOM     15  O2  <0> d          31.077  15.446  49.642  0.00  0.00    -0.646 OA
ENDBRANCH   1  13
TORSDOF 6
